0,   100.00, 33, 0, 1, 60.00     / PSS(R)E-33.3    WED, MAR 18 2015  14:09
08/25/93UWARCHIVE100.01961WIEEE118BUSTESTCASE
 08/25/93 UW ARCHIVE           100.0  1961 W IEEE 118 BUS TE
     1,'RIVERSDE    ', 138.0000,2,   1,   1,   1,0.95500,  12.6222,1.10000,0.90000,1.10000,0.90000
     2,'POKAGON     ', 138.0000,1,   1,   1,   1,0.97139,  13.1587,1.10000,0.90000,1.10000,0.90000
     3,'HICKRYCK    ', 138.0000,1,   1,   1,   1,0.96696,  13.5209,1.10000,0.90000,1.10000,0.90000
     4,'NWCARLSL    ', 138.0000,1,   1,   1,   1,0.99629,  17.2727,1.10000,0.90000,1.10000,0.90000
     5,'OLIVE       ', 138.0000,1,   1,   1,   1,0.99898,  17.7381,1.10000,0.90000,1.10000,0.90000
     6,'KANKAKEE    ', 138.0000,2,   1,   1,   1,0.99000,  14.9502,1.10000,0.90000,1.10000,0.90000
     7,'JACKSNRD    ', 138.0000,1,   1,   1,   1,0.98933,  14.5003,1.10000,0.90000,1.10000,0.90000
     8,'OLIVE       ', 138.0000,1,   1,   1,   1,1.02023,  22.8416,1.10000,0.90000,1.10000,0.90000
     9,'BEQUINE     ', 138.0000,1,   1,   1,   1,1.04569,  30.0501,1.10000,0.90000,1.10000,0.90000
    10,'BREED       ', 138.0000,2,   1,   1,   1,1.05000,  37.6230,1.10000,0.90000,1.10000,0.90000
    11,'SOUTHBND    ', 138.0000,1,   1,   1,   1,0.98424,  14.6673,1.10000,0.90000,1.10000,0.90000
    12,'TWINBRCH    ', 138.0000,2,   1,   1,   1,0.99000,  14.1331,1.10000,0.90000,1.10000,0.90000
    13,'CONCORD     ', 138.0000,1,   1,   1,   1,0.96763,  13.2683,1.10000,0.90000,1.10000,0.90000
    14,'GOSHENJT    ', 138.0000,1,   1,   1,   1,0.98359,  13.3957,1.10000,0.90000,1.10000,0.90000
    15,'FTWAYNE     ', 138.0000,2,   1,   1,   1,0.97000,  13.0421,1.10000,0.90000,1.10000,0.90000
    16,'N. E.       ', 138.0000,1,   1,   1,   1,0.98213,  13.8449,1.10000,0.90000,1.10000,0.90000
    17,'SORENSON    ', 138.0000,1,   1,   1,   1,0.98960,  15.6955,1.10000,0.90000,1.10000,0.90000
    18,'MCKINLEY    ', 138.0000,2,   1,   1,   1,0.97300,  13.3598,1.10000,0.90000,1.10000,0.90000
    19,'LINCOLN     ', 138.0000,2,   1,   1,   1,0.96400,  12.8376,1.10000,0.90000,1.10000,0.90000
    20,'ADAMS       ', 138.0000,1,   1,   1,   1,0.95950,  13.6892,1.10000,0.90000,1.10000,0.90000
    21,'JAY         ', 138.0000,1,   1,   1,   1,0.96066,  15.2522,1.10000,0.90000,1.10000,0.90000
    22,'RANDOLPH    ', 138.0000,1,   1,   1,   1,0.97231,  17.7727,1.10000,0.90000,1.10000,0.90000
    23,'COLLCRNR    ', 138.0000,1,   1,   1,   1,1.00317,  22.6292,1.10000,0.90000,1.10000,0.90000
    24,'TRENTON     ', 138.0000,1,   1,   1,   1,1.00267,  22.1812,1.10000,0.90000,1.10000,0.90000
    25,'TANNRSCK    ', 138.0000,2,   1,   1,   1,1.04500,  29.8065,1.10000,0.90000,1.10000,0.90000
    26,'TANNRSCK    ', 138.0000,2,   1,   1,   1,1.01500,  31.6513,1.10000,0.90000,1.10000,0.90000
    27,'MADISON     ', 138.0000,1,   1,   1,   1,0.96655,  17.4896,1.10000,0.90000,1.10000,0.90000
    28,'MULLIN      ', 138.0000,1,   1,   1,   1,0.96068,  15.6946,1.10000,0.90000,1.10000,0.90000
    29,'GRANT       ', 138.0000,1,   1,   1,   1,0.96300,  14.6263,1.10000,0.90000,1.10000,0.90000
    30,'SORENSON    ', 138.0000,1,   1,   1,   1,1.01125,  20.8255,1.10000,0.90000,1.10000,0.90000
    31,'DEERCRK     ', 138.0000,2,   1,   1,   1,0.96700,  14.7156,1.10000,0.90000,1.10000,0.90000
    32,'DELAWARE    ', 138.0000,2,   1,   1,   1,0.96300,  16.7816,1.10000,0.90000,1.10000,0.90000
    33,'HAVILAND    ', 138.0000,1,   1,   1,   1,0.96851,  12.3677,1.10000,0.90000,1.10000,0.90000
    34,'ROCKHILL    ', 138.0000,2,   1,   1,   1,0.98300,  12.8990,1.10000,0.90000,1.10000,0.90000
    35,'WESTLIMA    ', 138.0000,1,   1,   1,   1,0.97958,  12.4439,1.10000,0.90000,1.10000,0.90000
    36,'STERLING    ', 138.0000,2,   1,   1,   1,0.98000,  12.4306,1.10000,0.90000,1.10000,0.90000
    37,'EASTLIMA    ', 138.0000,1,   1,   1,   1,0.98556,  13.4280,1.10000,0.90000,1.10000,0.90000
    38,'EASTLIMA    ', 138.0000,1,   1,   1,   1,1.00854,  18.9161,1.10000,0.90000,1.10000,0.90000
    39,'NWLIBRTY    ', 138.0000,1,   1,   1,   1,0.94216,   9.9966,1.10000,0.90000,1.10000,0.90000
    40,'WEST END    ', 138.0000,1,   1,   1,   1,0.92964,   8.8813,1.10000,0.90000,1.10000,0.90000
    41,'S.TIFFIN    ', 138.0000,1,   1,   1,   1,0.92390,   8.2807,1.10000,0.90000,1.10000,0.90000
    42,'HOWARD      ', 138.0000,1,   1,   1,   1,0.93637,   9.7211,1.10000,0.90000,1.10000,0.90000
    43,'S.KENTON    ', 138.0000,1,   1,   1,   1,0.97675,  12.5700,1.10000,0.90000,1.10000,0.90000
    44,'WMVERNON    ', 138.0000,1,   1,   1,   1,0.98474,  14.6474,1.10000,0.90000,1.10000,0.90000
    45,'N.NEWARK    ', 138.0000,1,   1,   1,   1,0.98675,  16.3282,1.10000,0.90000,1.10000,0.90000
    46,'W.LANCST    ', 138.0000,2,   1,   1,   1,1.00500,  19.0221,1.10000,0.90000,1.10000,0.90000
    47,'CROOKSVL    ', 138.0000,1,   1,   1,   1,1.01720,  21.1600,1.10000,0.90000,1.10000,0.90000
    48,'ZANESVLL    ', 138.0000,1,   1,   1,   1,1.02064,  20.4285,1.10000,0.90000,1.10000,0.90000
    49,'PHILO       ', 138.0000,2,   1,   1,   1,1.02500,  21.4220,1.10000,0.90000,1.10000,0.90000
    50,'WCAMBRDG    ', 138.0000,1,   1,   1,   1,1.00059,  19.0817,1.10000,0.90000,1.10000,0.90000
    51,'NEWCMRST    ', 138.0000,1,   1,   1,   1,0.96597,  16.0655,1.10000,0.90000,1.10000,0.90000
    52,'SCOSHOCT    ', 138.0000,1,   1,   1,   1,0.95584,  14.9997,1.10000,0.90000,1.10000,0.90000
    53,'WOOSTER     ', 138.0000,1,   1,   1,   1,0.94548,  13.7181,1.10000,0.90000,1.10000,0.90000
    54,'TORREY      ', 138.0000,2,   1,   1,   1,0.95500,  14.4048,1.10000,0.90000,1.10000,0.90000
    55,'WAGENHLS    ', 138.0000,2,   1,   1,   1,0.95200,  14.2860,1.10000,0.90000,1.10000,0.90000
    56,'SUNNYSDE    ', 138.0000,2,   1,   1,   1,0.95400,  14.3468,1.10000,0.90000,1.10000,0.90000
    57,'WNWPHIL1    ', 138.0000,1,   1,   1,   1,0.97007,  15.9796,1.10000,0.90000,1.10000,0.90000
    58,'WNWPHIL2    ', 138.0000,1,   1,   1,   1,0.95846,  15.0393,1.10000,0.90000,1.10000,0.90000
    59,'TIDD        ', 138.0000,2,   1,   1,   1,0.98500,  20.8868,1.10000,0.90000,1.10000,0.90000
    60,'SWKAMMER    ', 138.0000,1,   1,   1,   1,0.99312,  25.0256,1.10000,0.90000,1.10000,0.90000
    61,'W.KAMMER    ', 138.0000,2,   1,   1,   1,0.99500,  25.9058,1.10000,0.90000,1.10000,0.90000
    62,'NATRIUM     ', 138.0000,2,   1,   1,   1,0.99800,  25.4831,1.10000,0.90000,1.10000,0.90000
    63,'TIDD        ', 138.0000,1,   1,   1,   1,1.00191,  24.4974,1.10000,0.90000,1.10000,0.90000
    64,'KAMMER      ', 138.0000,1,   1,   1,   1,1.01277,  26.2789,1.10000,0.90000,1.10000,0.90000
    65,'MUSKNGUM    ', 138.0000,2,   1,   1,   1,1.04300,  29.2091,1.10000,0.90000,1.10000,0.90000
    66,'MUSKNGUM    ', 138.0000,2,   1,   1,   1,1.05000,  30.4264,1.10000,0.90000,1.10000,0.90000
    67,'SUMMERFL    ', 138.0000,1,   1,   1,   1,1.01937,  27.3843,1.10000,0.90000,1.10000,0.90000
    68,'SPORN       ', 138.0000,1,   1,   1,   1,1.05085,  28.5579,1.10000,0.90000,1.10000,0.90000
    69,'SPORN       ', 138.0000,3,   1,   1,   1,1.03500,  30.0000,1.10000,0.90000,1.10000,0.90000
    70,'PORTSMTH    ', 138.0000,2,   1,   1,   1,0.98400,  22.9018,1.10000,0.90000,1.10000,0.90000
    71,'NPORTSMT    ', 138.0000,1,   1,   1,   1,0.98657,  22.5761,1.10000,0.90000,1.10000,0.90000
    72,'HILLSBRO    ', 138.0000,1,   1,   1,   1,0.99574,  21.6718,1.10000,0.90000,1.10000,0.90000
    73,'SARGENTS    ', 138.0000,1,   1,   1,   1,0.98630,  22.4128,1.10000,0.90000,1.10000,0.90000
    74,'BELLEFNT    ', 138.0000,2,   1,   1,   1,0.95800,  21.8247,1.10000,0.90000,1.10000,0.90000
    75,'STHPOINT    ', 138.0000,1,   1,   1,   1,0.96740,  23.0452,1.10000,0.90000,1.10000,0.90000
    76,'DARRAH      ', 138.0000,2,   1,   1,   1,0.94300,  21.8581,1.10000,0.90000,1.10000,0.90000
    77,'TURNER      ', 138.0000,2,   1,   1,   1,1.00600,  26.7293,1.10000,0.90000,1.10000,0.90000
    78,'CHEMICAL    ', 138.0000,1,   1,   1,   1,1.00347,  26.5092,1.10000,0.90000,1.10000,0.90000
    79,'CAPITLHL    ', 138.0000,1,   1,   1,   1,1.00916,  26.9694,1.10000,0.90000,1.10000,0.90000
    80,'CABINCRK    ', 138.0000,2,   1,   1,   1,1.04000,  29.6635,1.10000,0.90000,1.10000,0.90000
    81,'KANAWHA     ', 138.0000,1,   1,   1,   1,1.05293,  28.9411,1.10000,0.90000,1.10000,0.90000
    82,'LOGAN       ', 138.0000,1,   1,   1,   1,0.99277,  27.6115,1.10000,0.90000,1.10000,0.90000
    83,'SPRIGG      ', 138.0000,1,   1,   1,   1,0.99118,  29.0311,1.10000,0.90000,1.10000,0.90000
    84,'BETSYLNE    ', 138.0000,1,   1,   1,   1,0.99129,  31.8919,1.10000,0.90000,1.10000,0.90000
    85,'BEAVERCK    ', 138.0000,2,   1,   1,   1,0.99900,  33.5872,1.10000,0.90000,1.10000,0.90000
    86,'HAZARD      ', 138.0000,1,   1,   1,   1,0.99564,  32.3340,1.10000,0.90000,1.10000,0.90000
    87,'PINEVLLE    ', 138.0000,2,   1,   1,   1,1.01500,  32.6610,1.10000,0.90000,1.10000,0.90000
    88,'FREMONT     ', 138.0000,1,   1,   1,   1,1.00795,  36.9410,1.10000,0.90000,1.10000,0.90000
    89,'CLINCHRV    ', 138.0000,2,   1,   1,   1,1.03000,  41.0415,1.10000,0.90000,1.10000,0.90000
    90,'HOLSTON     ', 138.0000,1,   1,   1,   1,0.90200,  27.4116,1.10000,0.90000,1.10000,0.90000
    91,'HOLSTONT    ', 138.0000,1,   1,   1,   1,0.93741,  29.4009,1.10000,0.90000,1.10000,0.90000
    92,'SALTVLLE    ', 138.0000,2,   1,   1,   1,0.99500,  32.9835,1.10000,0.90000,1.10000,0.90000
    93,'TAZEWELL    ', 138.0000,1,   1,   1,   1,0.98955,  30.3648,1.10000,0.90000,1.10000,0.90000
    94,'SWITCHBK    ', 138.0000,1,   1,   1,   1,0.99263,  28.5463,1.10000,0.90000,1.10000,0.90000
    95,'CALDWELL    ', 138.0000,1,   1,   1,   1,0.98324,  27.7359,1.10000,0.90000,1.10000,0.90000
    96,'BAILEYSV    ', 138.0000,1,   1,   1,   1,0.99521,  27.7672,1.10000,0.90000,1.10000,0.90000
    97,'SUNDIAL     ', 138.0000,1,   1,   1,   1,1.01262,  28.3636,1.10000,0.90000,1.10000,0.90000
    98,'BRADLEY     ', 138.0000,1,   1,   1,   1,1.02344,  27.8376,1.10000,0.90000,1.10000,0.90000
    99,'HINTON      ', 138.0000,1,   1,   1,   1,1.02009,  27.1113,1.10000,0.90000,1.10000,0.90000
   100,'GLEN LYN    ', 138.0000,2,   1,   1,   1,1.01700,  28.0070,1.10000,0.90000,1.10000,0.90000
   101,'WYTHE       ', 138.0000,1,   1,   1,   1,0.99395,  29.2486,1.10000,0.90000,1.10000,0.90000
   102,'SMYTHE      ', 138.0000,1,   1,   1,   1,0.99345,  31.6368,1.10000,0.90000,1.10000,0.90000
   103,'CLAYTOR     ', 138.0000,2,   1,   1,   1,0.99000,  24.5836,1.10000,0.90000,1.10000,0.90000
   104,'HANCOCK     ', 138.0000,2,   1,   1,   1,0.97100,  21.6163,1.10000,0.90000,1.10000,0.90000
   105,'ROANOKE     ', 138.0000,2,   1,   1,   1,0.96500,  20.4970,1.10000,0.90000,1.10000,0.90000
   106,'CLOVERDL    ', 138.0000,1,   1,   1,   1,0.95972,  20.2729,1.10000,0.90000,1.10000,0.90000
   107,'REUSENS     ', 138.0000,1,   1,   1,   1,0.94479,  17.5417,1.10000,0.90000,1.10000,0.90000
   108,'BLAINE      ', 138.0000,1,   1,   1,   1,0.96101,  19.3772,1.10000,0.90000,1.10000,0.90000
   109,'FRANKLIN    ', 138.0000,1,   1,   1,   1,0.95968,  18.9535,1.10000,0.90000,1.10000,0.90000
   110,'FIELDALE    ', 138.0000,2,   1,   1,   1,0.96000,  18.1805,1.10000,0.90000,1.10000,0.90000
   111,'DANRIVER    ', 138.0000,2,   1,   1,   1,0.98000,  19.6234,1.10000,0.90000,1.10000,0.90000
   112,'DANVILLE    ', 138.0000,1,   1,   1,   1,0.93396,  15.5611,1.10000,0.90000,1.10000,0.90000
   113,'DEER CRK    ', 138.0000,1,   1,   1,   1,0.98643,  15.7263,1.10000,0.90000,1.10000,0.90000
   114,'WMEDFORD    ', 138.0000,1,   1,   1,   1,0.95947,  16.5155,1.10000,0.90000,1.10000,0.90000
   115,'MEDFORD     ', 138.0000,1,   1,   1,   1,0.95929,  16.5188,1.10000,0.90000,1.10000,0.90000
   116,'KYGERCRK    ', 138.0000,1,   1,   1,   1,1.05058,  28.1695,1.10000,0.90000,1.10000,0.90000
   117,'COREY       ', 138.0000,1,   1,   1,   1,0.97382,  12.5921,1.10000,0.90000,1.10000,0.90000
   118,'WHUNTNGD    ', 138.0000,1,   1,   1,   1,0.94947,  22.0311,1.10000,0.90000,1.10000,0.90000
0 / END OF BUS DATA, BEGIN LOAD DATA
     1,'1 ',1,   1,   1,     0.000,     0.000,    53.403,     0.000,     0.000,   -29.604,   1,1,0
     2,'1 ',1,   1,   1,     0.000,     0.000,    20.589,     0.000,     0.000,    -9.538,   1,1,0
     3,'1 ',1,   1,   1,     0.000,     0.000,    40.332,     0.000,     0.000,   -10.695,   1,1,0
     4,'1 ',1,   1,   1,     0.000,     0.000,    39.145,     0.000,     0.000,   -12.090,   1,1,0
     6,'1 ',1,   1,   1,     0.000,     0.000,    52.525,     0.000,     0.000,   -22.447,   1,1,0
     7,'1 ',1,   1,   1,     0.000,     0.000,    19.205,     0.000,     0.000,    -2.043,   1,1,0
     8,'1 ',1,   1,   1,     0.000,     0.000,    27.445,     0.000,     0.000,     0.000,   1,1,0
    11,'1 ',1,   1,   1,     0.000,     0.000,    71.121,     0.000,     0.000,   -23.743,   1,1,0
    12,'1 ',1,   1,   1,     0.000,     0.000,    47.475,     0.000,     0.000,   -10.203,   1,1,0
    13,'1 ',1,   1,   1,     0.000,     0.000,    35.138,     0.000,     0.000,   -17.089,   1,1,0
    14,'1 ',1,   1,   1,     0.000,     0.000,    14.234,     0.000,     0.000,    -1.034,   1,1,0
    15,'1 ',1,   1,   1,     0.000,     0.000,    92.784,     0.000,     0.000,   -31.884,   1,1,0
    16,'1 ',1,   1,   1,     0.000,     0.000,    25.455,     0.000,     0.000,   -10.367,   1,1,0
    17,'1 ',1,   1,   1,     0.000,     0.000,    11.116,     0.000,     0.000,    -3.063,   1,1,0
    18,'1 ',1,   1,   1,     0.000,     0.000,    61.665,     0.000,     0.000,   -35.913,   1,1,0
    19,'1 ',1,   1,   1,     0.000,     0.000,    46.680,     0.000,     0.000,   -26.902,   1,1,0
    20,'1 ',1,   1,   1,     0.000,     0.000,    18.760,     0.000,     0.000,    -3.259,   1,1,0
    21,'1 ',1,   1,   1,     0.000,     0.000,    14.573,     0.000,     0.000,    -8.669,   1,1,0
    22,'1 ',1,   1,   1,     0.000,     0.000,    10.285,     0.000,     0.000,    -5.289,   1,1,0
    23,'1 ',1,   1,   1,     0.000,     0.000,     6.978,     0.000,     0.000,    -2.981,   1,1,0
    24,'1 ',1,   1,   1,     0.000,     0.000,    12.965,     0.000,     0.000,     0.000,   1,1,0
    27,'1 ',1,   1,   1,     0.000,     0.000,    64.146,     0.000,     0.000,   -13.915,   1,1,0
    28,'1 ',1,   1,   1,     0.000,     0.000,    17.696,     0.000,     0.000,    -7.585,   1,1,0
    29,'1 ',1,   1,   1,     0.000,     0.000,    24.922,     0.000,     0.000,    -4.313,   1,1,0
    31,'1 ',1,   1,   1,     0.000,     0.000,    44.467,     0.000,     0.000,   -28.874,   1,1,0
    32,'1 ',1,   1,   1,     0.000,     0.000,    61.267,     0.000,     0.000,   -24.801,   1,1,0
    33,'1 ',1,   1,   1,     0.000,     0.000,    23.748,     0.000,     0.000,    -9.595,   1,1,0
    34,'1 ',1,   1,   1,     0.000,     0.000,    60.020,     0.000,     0.000,   -26.907,   1,1,0
    35,'1 ',1,   1,   1,     0.000,     0.000,    33.688,     0.000,     0.000,    -9.379,   1,1,0
    36,'1 ',1,   1,   1,     0.000,     0.000,    31.633,     0.000,     0.000,   -17.701,   1,1,0
    39,'1 ',1,   1,   1,     0.000,     0.000,    28.658,     0.000,     0.000,   -12.392,   1,1,0
    40,'1 ',1,   1,   1,     0.000,     0.000,    70.995,     0.000,     0.000,   -26.613,   1,1,0
    41,'1 ',1,   1,   1,     0.000,     0.000,    40.048,     0.000,     0.000,   -11.715,   1,1,0
    42,'1 ',1,   1,   1,     0.000,     0.000,    39.514,     0.000,     0.000,  -109.490,   1,1,0
    43,'1 ',1,   1,   1,     0.000,     0.000,    18.428,     0.000,     0.000,    -7.337,   1,1,0
    44,'1 ',1,   1,   1,     0.000,     0.000,    16.248,     0.000,     0.000,    -8.250,   1,1,0
    45,'1 ',1,   1,   1,     0.000,     0.000,    53.712,     0.000,     0.000,   -22.595,   1,1,0
    46,'1 ',1,   1,   1,     0.000,     0.000,    27.861,     0.000,     0.000,    -9.901,   1,1,0
    47,'1 ',1,   1,   1,     0.000,     0.000,    33.425,     0.000,     0.000,     0.000,   1,1,0
    48,'1 ',1,   1,   1,     0.000,     0.000,    19.595,     0.000,     0.000,   -10.560,   1,1,0
    49,'1 ',1,   1,   1,     0.000,     0.000,    84.878,     0.000,     0.000,   -28.554,   1,1,0
    50,'1 ',1,   1,   1,     0.000,     0.000,    16.990,     0.000,     0.000,    -3.995,   1,1,0
    51,'1 ',1,   1,   1,     0.000,     0.000,    17.599,     0.000,     0.000,    -8.574,   1,1,0
    52,'1 ',1,   1,   1,     0.000,     0.000,    18.832,     0.000,     0.000,    -5.473,   1,1,0
    53,'1 ',1,   1,   1,     0.000,     0.000,    24.326,     0.000,     0.000,   -12.305,   1,1,0
    54,'1 ',1,   1,   1,     0.000,     0.000,   118.325,     0.000,     0.000,   -35.087,   1,1,0
    55,'1 ',1,   1,   1,     0.000,     0.000,    66.176,     0.000,     0.000,   -24.274,   1,1,0
    56,'1 ',1,   1,   1,     0.000,     0.000,    88.050,     0.000,     0.000,   -19.778,   1,1,0
    57,'1 ',1,   1,   1,     0.000,     0.000,    12.370,     0.000,     0.000,    -3.188,   1,1,0
    58,'1 ',1,   1,   1,     0.000,     0.000,    12.520,     0.000,     0.000,    -3.266,   1,1,0
    59,'1 ',1,   1,   1,     0.000,     0.000,   281.218,     0.000,     0.000,  -116.468,   1,1,0
    60,'1 ',1,   1,   1,     0.000,     0.000,    78.540,     0.000,     0.000,    -3.042,   1,1,0
    62,'1 ',1,   1,   1,     0.000,     0.000,    77.154,     0.000,     0.000,   -14.056,   1,1,0
    66,'1 ',1,   1,   1,     0.000,     0.000,    37.143,     0.000,     0.000,   -16.327,   1,1,0
    67,'1 ',1,   1,   1,     0.000,     0.000,    27.468,     0.000,     0.000,    -6.737,   1,1,0
    70,'1 ',1,   1,   1,     0.000,     0.000,    67.073,     0.000,     0.000,   -20.656,   1,1,0
    72,'1 ',1,   1,   1,     0.000,     0.000,    12.051,     0.000,     0.000,     0.000,   1,1,0
    73,'1 ',1,   1,   1,     0.000,     0.000,     6.083,     0.000,     0.000,     0.000,   1,1,0
    74,'1 ',1,   1,   1,     0.000,     0.000,    70.981,     0.000,     0.000,   -29.419,   1,1,0
    75,'1 ',1,   1,   1,     0.000,     0.000,    48.584,     0.000,     0.000,   -11.754,   1,1,0
    76,'1 ',1,   1,   1,     0.000,     0.000,    72.110,     0.000,     0.000,   -40.484,   1,1,0
    77,'1 ',1,   1,   1,     0.000,     0.000,    60.636,     0.000,     0.000,   -27.667,   1,1,0
    78,'1 ',1,   1,   1,     0.000,     0.000,    70.754,     0.000,     0.000,   -25.820,   1,1,0
    79,'1 ',1,   1,   1,     0.000,     0.000,    38.646,     0.000,     0.000,   -31.422,   1,1,0
    80,'1 ',1,   1,   1,     0.000,     0.000,   125.000,     0.000,     0.000,   -24.038,   1,1,0
    82,'1 ',1,   1,   1,     0.000,     0.000,    54.393,     0.000,     0.000,   -27.395,   1,1,0
    83,'1 ',1,   1,   1,     0.000,     0.000,    20.178,     0.000,     0.000,   -10.179,   1,1,0
    84,'1 ',1,   1,   1,     0.000,     0.000,    11.097,     0.000,     0.000,    -7.124,   1,1,0
    85,'1 ',1,   1,   1,     0.000,     0.000,    24.024,     0.000,     0.000,   -15.030,   1,1,0
    86,'1 ',1,   1,   1,     0.000,     0.000,    21.092,     0.000,     0.000,   -10.088,   1,1,0
    88,'1 ',1,   1,   1,     0.000,     0.000,    47.621,     0.000,     0.000,    -9.843,   1,1,0
    90,'1 ',1,   1,   1,     0.000,     0.000,   180.710,     0.000,     0.000,   -51.622,   1,1,0
    91,'1 ',1,   1,   1,     0.000,     0.000,    10.668,     0.000,     0.000,     0.000,   1,1,0
    92,'1 ',1,   1,   1,     0.000,     0.000,    65.327,     0.000,     0.000,   -10.101,   1,1,0
    93,'1 ',1,   1,   1,     0.000,     0.000,    12.127,     0.000,     0.000,    -7.149,   1,1,0
    94,'1 ',1,   1,   1,     0.000,     0.000,    30.223,     0.000,     0.000,   -16.238,   1,1,0
    95,'1 ',1,   1,   1,     0.000,     0.000,    42.716,     0.000,     0.000,   -32.066,   1,1,0
    96,'1 ',1,   1,   1,     0.000,     0.000,    38.183,     0.000,     0.000,   -15.145,   1,1,0
    97,'1 ',1,   1,   1,     0.000,     0.000,    14.813,     0.000,     0.000,    -8.777,   1,1,0
    98,'1 ',1,   1,   1,     0.000,     0.000,    33.221,     0.000,     0.000,    -7.638,   1,1,0
    99,'1 ',1,   1,   1,     0.000,     0.000,    41.173,     0.000,     0.000,     0.000,   1,1,0
   100,'1 ',1,   1,   1,     0.000,     0.000,    36.382,     0.000,     0.000,   -17.403,   1,1,0
   101,'1 ',1,   1,   1,     0.000,     0.000,    22.134,     0.000,     0.000,   -15.183,   1,1,0
   102,'1 ',1,   1,   1,     0.000,     0.000,     5.033,     0.000,     0.000,    -3.040,   1,1,0
   103,'1 ',1,   1,   1,     0.000,     0.000,    23.232,     0.000,     0.000,   -16.325,   1,1,0
   104,'1 ',1,   1,   1,     0.000,     0.000,    39.135,     0.000,     0.000,   -26.516,   1,1,0
   105,'1 ',1,   1,   1,     0.000,     0.000,    32.124,     0.000,     0.000,   -27.920,   1,1,0
   106,'1 ',1,   1,   1,     0.000,     0.000,    44.805,     0.000,     0.000,   -17.371,   1,1,0
   107,'1 ',1,   1,   1,     0.000,     0.000,    52.922,     0.000,     0.000,   -13.443,   1,1,0
   108,'1 ',1,   1,   1,     0.000,     0.000,     2.081,     0.000,     0.000,    -1.083,   1,1,0
   109,'1 ',1,   1,   1,     0.000,     0.000,     8.336,     0.000,     0.000,    -3.257,   1,1,0
   110,'1 ',1,   1,   1,     0.000,     0.000,    40.625,     0.000,     0.000,   -32.552,   1,1,0
   112,'1 ',1,   1,   1,     0.000,     0.000,    72.808,     0.000,     0.000,   -14.904,   1,1,0
   113,'1 ',1,   1,   1,     0.000,     0.000,     6.083,     0.000,     0.000,     0.000,   1,1,0
   114,'1 ',1,   1,   1,     0.000,     0.000,     8.338,     0.000,     0.000,    -3.259,   1,1,0
   115,'1 ',1,   1,   1,     0.000,     0.000,    22.934,     0.000,     0.000,    -7.607,   1,1,0
   116,'1 ',1,   1,   1,     0.000,     0.000,   175.142,     0.000,     0.000,     0.000,   1,1,0
   117,'1 ',1,   1,   1,     0.000,     0.000,    20.538,     0.000,     0.000,    -8.436,   1,1,0
   118,'1 ',1,   1,   1,     0.000,     0.000,    34.756,     0.000,     0.000,   -16.639,   1,1,0
0 / END OF LOAD DATA, BEGIN FIXED SHUNT DATA
    42,'1 ',1,     0.000,   100.000
0 / END OF FIXED SHUNT DATA, BEGIN GENERATOR DATA
     1,'1 ',     0.000,    -1.453,    15.000,    -5.000,0.95500,     0,   100.000, 0.00000E+0, 1.30000E-1, 0.00000E+0, 0.00000E+0,1.00000,1,  100.0, 10000.000,-10000.000,   1,1.0000
     6,'1 ',     0.000,    21.526,    50.000,   -13.000,0.99000,     0,   100.000, 0.00000E+0, 1.30000E-1, 0.00000E+0, 0.00000E+0,1.00000,1,  100.0, 10000.000,-10000.000,   1,1.0000
    10,'1 ',   450.000,   -60.080,   200.000,  -147.000,1.05000,     0,   450.000, 0.00000E+0, 5.10000E-1, 0.00000E+0, 0.00000E+0,1.00000,1,  100.0, 10000.000,-10000.000,   1,1.0000
    12,'1 ',    85.000,    98.152,   120.000,   -35.000,0.99000,     0,   100.000, 0.00000E+0, 5.10000E-1, 0.00000E+0, 0.00000E+0,1.00000,1,  100.0, 10000.000,-10000.000,   1,1.0000
    15,'1 ',     0.000,    16.817,    30.000,   -10.000,0.97000,     0,   100.000, 0.00000E+0, 1.30000E-1, 0.00000E+0, 0.00000E+0,1.00000,1,  100.0, 10000.000,-10000.000,   1,1.0000
    18,'1 ',     0.000,    35.243,    50.000,   -16.000,0.97300,     0,   100.000, 0.00000E+0, 1.30000E-1, 0.00000E+0, 0.00000E+0,1.00000,1,  100.0, 10000.000,-10000.000,   1,1.0000
    19,'1 ',     0.000,    -4.923,    24.000,    -8.000,0.96400,     0,   100.000, 0.00000E+0, 1.30000E-1, 0.00000E+0, 0.00000E+0,1.00000,1,  100.0, 10000.000,-10000.000,   1,1.0000
    25,'1 ',   220.000,   138.286,   140.000,   -47.000,1.04500,     0,   220.000, 0.00000E+0, 5.10000E-1, 0.00000E+0, 0.00000E+0,1.00000,1,  100.0, 10000.000,-10000.000,   1,1.0000
    26,'1 ',   314.000,  -120.242,  1000.000, -1000.000,1.01500,     0,   314.000, 0.00000E+0, 5.10000E-1, 0.00000E+0, 0.00000E+0,1.00000,1,  100.0, 10000.000,-10000.000,   1,1.0000
    31,'1 ',     7.000,    36.639,   300.000,  -300.000,0.96700,     0,   100.000, 0.00000E+0, 5.10000E-1, 0.00000E+0, 0.00000E+0,1.00000,1,  100.0, 10000.000,-10000.000,   1,1.0000
    32,'1 ',     0.000,   -13.925,    42.000,   -14.000,0.96300,     0,   100.000, 0.00000E+0, 1.30000E-1, 0.00000E+0, 0.00000E+0,1.00000,1,  100.0, 10000.000,-10000.000,   1,1.0000
    34,'1 ',     0.000,    17.147,    24.000,    -8.000,0.98300,     0,   100.000, 0.00000E+0, 1.30000E-1, 0.00000E+0, 0.00000E+0,1.00000,1,  100.0, 10000.000,-10000.000,   1,1.0000
    36,'1 ',     0.000,    19.737,    24.000,    -8.000,0.98000,     0,   100.000, 0.00000E+0, 1.30000E-1, 0.00000E+0, 0.00000E+0,1.00000,1,  100.0, 10000.000,-10000.000,   1,1.0000
    46,'1 ',    19.000,    -5.555,   100.000,  -100.000,1.00500,     0,   100.000, 0.00000E+0, 5.10000E-1, 0.00000E+0, 0.00000E+0,1.00000,1,  100.0, 10000.000,-10000.000,   1,1.0000
    49,'1 ',   204.000,   125.874,   210.000,   -85.000,1.02500,     0,   204.000, 0.00000E+0, 1.30000E-1, 0.00000E+0, 0.00000E+0,1.00000,1,  100.0, 10000.000,-10000.000,   1,1.0000
    54,'1 ',    48.000,    29.227,   300.000,  -300.000,0.95500,     0,   100.000, 0.00000E+0, 1.30000E-1, 0.00000E+0, 0.00000E+0,1.00000,1,  100.0, 10000.000,-10000.000,   1,1.0000
    55,'1 ',     0.000,     4.918,    23.000,    -8.000,0.95200,     0,   100.000, 0.00000E+0, 1.30000E-1, 0.00000E+0, 0.00000E+0,1.00000,1,  100.0, 10000.000,-10000.000,   1,1.0000
    56,'1 ',     0.000,    14.461,    15.000,    -8.000,0.95400,     0,   100.000, 0.00000E+0, 1.30000E-1, 0.00000E+0, 0.00000E+0,1.00000,1,  100.0, 10000.000,-10000.000,   1,1.0000
    59,'1 ',   155.000,    89.736,   180.000,   -60.000,0.98500,     0,   155.000, 0.00000E+0, 1.30000E-1, 0.00000E+0, 0.00000E+0,1.00000,1,  100.0, 10000.000,-10000.000,   1,1.0000
    61,'1 ',   160.000,   -90.824,   300.000,  -100.000,0.99500,     0,   160.000, 0.00000E+0, 1.30000E-1, 0.00000E+0, 0.00000E+0,1.00000,1,  100.0, 10000.000,-10000.000,   1,1.0000
    62,'1 ',     0.000,     2.364,    20.000,   -20.000,0.99800,     0,   100.000, 0.00000E+0, 1.30000E-1, 0.00000E+0, 0.00000E+0,1.00000,1,  100.0, 10000.000,-10000.000,   1,1.0000
    65,'1 ',   391.000,   -60.102,   200.000,   -67.000,1.04300,     0,   400.000, 0.00000E+0, 1.30000E-1, 0.00000E+0, 0.00000E+0,1.00000,1,  100.0, 10000.000,-10000.000,   1,1.0000
    66,'1 ',   392.001,    76.043,   200.000,   -67.000,1.05000,     0,   400.000, 0.00000E+0, 1.30000E-1, 0.00000E+0, 0.00000E+0,1.00000,1,  100.0, 10000.000,-10000.000,   1,1.0000
    69,'1 ',   452.572,   -21.029,   300.000,  -300.000,1.03500,     0,   500.000, 0.00000E+0, 1.30000E-1, 0.00000E+0, 0.00000E+0,1.00000,1,  100.0, 10000.000,-10000.000,   1,1.0000
    70,'1 ',     0.000,     6.348,    32.000,   -10.000,0.98400,     0,   100.000, 0.00000E+0, 1.30000E-1, 0.00000E+0, 0.00000E+0,1.00000,1,  100.0, 10000.000,-10000.000,   1,1.0000
    74,'1 ',     0.000,    -5.782,     9.000,    -6.000,0.95800,     0,   100.000, 0.00000E+0, 1.30000E-1, 0.00000E+0, 0.00000E+0,1.00000,1,  100.0, 10000.000,-10000.000,   1,1.0000
    76,'1 ',     0.000,     5.144,    23.000,    -8.000,0.94300,     0,   100.000, 0.00000E+0, 1.30000E-1, 0.00000E+0, 0.00000E+0,1.00000,1,  100.0, 10000.000,-10000.000,   1,1.0000
    77,'1 ',     0.000,    43.307,    70.000,   -20.000,1.00600,     0,   100.000, 0.00000E+0, 1.30000E-1, 0.00000E+0, 0.00000E+0,1.00000,1,  100.0, 10000.000,-10000.000,   1,1.0000
    80,'1 ',   477.000,   101.511,   280.000,  -165.000,1.04000,     0,   500.000, 0.00000E+0, 1.30000E-1, 0.00000E+0, 0.00000E+0,1.00000,1,  100.0, 10000.000,-10000.000,   1,1.0000
    85,'1 ',     0.000,    -7.148,    23.000,    -8.000,0.99900,     0,   100.000, 0.00000E+0, 1.30000E-1, 0.00000E+0, 0.00000E+0,1.00000,1,  100.0, 10000.000,-10000.000,   1,1.0000
    87,'1 ',     4.000,     6.645,  1000.000,  -100.000,1.01500,     0,   100.000, 0.00000E+0, 1.30000E-1, 0.00000E+0, 0.00000E+0,1.00000,1,  100.0, 10000.000,-10000.000,   1,1.0000
    89,'1 ',   607.000,   100.693,   300.000,  -210.000,1.03000,     0,   610.000, 0.00000E+0, 1.30000E-1, 0.00000E+0, 0.00000E+0,1.00000,1,  100.0, 10000.000,-10000.000,   1,1.0000
    92,'1 ',     0.000,    -0.016,     9.000,    -3.000,0.99500,     0,   100.000, 0.00000E+0, 1.30000E-1, 0.00000E+0, 0.00000E+0,1.00000,1,  100.0, 10000.000,-10000.000,   1,1.0000
   100,'1 ',   252.000,   112.404,   155.000,   -50.000,1.01700,     0,   250.000, 0.00000E+0, 5.10000E-1, 0.00000E+0, 0.00000E+0,1.00000,1,  100.0, 10000.000,-10000.000,   1,1.0000
   103,'1 ',    40.000,     8.160,    40.000,   -15.000,0.99000,     0,   100.000, 0.00000E+0, 5.10000E-1, 0.00000E+0, 0.00000E+0,1.00000,1,  100.0, 10000.000,-10000.000,   1,1.0000
   104,'1 ',     0.000,    14.901,    23.000,    -8.000,0.97100,     0,   100.000, 0.00000E+0, 1.30000E-1, 0.00000E+0, 0.00000E+0,1.00000,1,  100.0, 10000.000,-10000.000,   1,1.0000
   105,'1 ',     0.000,     7.087,    23.000,    -8.000,0.96500,     0,   100.000, 0.00000E+0, 1.30000E-1, 0.00000E+0, 0.00000E+0,1.00000,1,  100.0, 10000.000,-10000.000,   1,1.0000
   110,'1 ',     0.000,    22.442,    23.000,    -8.000,0.96000,     0,   100.000, 0.00000E+0, 1.30000E-1, 0.00000E+0, 0.00000E+0,1.00000,1,  100.0, 10000.000,-10000.000,   1,1.0000
   111,'1 ',    36.000,    14.905,  1000.000,  -100.000,0.98000,     0,   100.000, 0.00000E+0, 5.10000E-1, 0.00000E+0, 0.00000E+0,1.00000,1,  100.0, 10000.000,-10000.000,   1,1.0000
0 / END OF GENERATOR DATA, BEGIN BRANCH DATA
     1,     2,'1 ', 3.03000E-2, 9.99000E-2,   0.02540,    0.00,    0.00,    0.00,  0.00000,  0.00000,  0.00000,  0.00000,1,1,   0.00,   1,1.0000
     1,     3,'1 ', 1.29000E-2, 4.24000E-2,   0.01082,    0.00,    0.00,    0.00,  0.00000,  0.00000,  0.00000,  0.00000,1,1,   0.00,   1,1.0000
     2,    12,'1 ', 1.87000E-2, 6.16000E-2,   0.01572,    0.00,    0.00,    0.00,  0.00000,  0.00000,  0.00000,  0.00000,1,1,   0.00,   1,1.0000
     3,     5,'1 ', 2.41000E-2, 1.08000E-1,   0.02840,    0.00,    0.00,    0.00,  0.00000,  0.00000,  0.00000,  0.00000,1,1,   0.00,   1,1.0000
     3,    12,'1 ', 4.84000E-2, 1.60000E-1,   0.04060,    0.00,    0.00,    0.00,  0.00000,  0.00000,  0.00000,  0.00000,1,1,   0.00,   1,1.0000