    1 'GENSAL' 1   8.95200
  0.07500  0.15000  4.77500  0.00000  0.36000  0.24000
  0.15000  0.10000  0.08300  0.13000  0.32000  /
    2 'GENROU' 1   5.98261  0.05750
  0.52698  0.09450  1.77013  0.00000  1.72000  1.66000
  0.23000  0.37800  0.20000  0.14100  0.13000  0.32000  /
    3 'GENROU' 1   5.88730  0.05750
  0.60375  0.08000  1.17513  0.00000  1.68000  1.61000
  0.23000  0.32000  0.20000  0.09490  0.13000  0.32000  /
     1 'IEEEX1'  1   0.060000 0.001000 0.200000 0.010000 0.000000 1.000000 -1.000000 -0.044000 0.500000 0.085000 0.350000 0.000000 3.660000 0.030000 4.890000 0.100000    / 
     2 'IEEEX1'  1   0.001000 400.000000 0.050000 0.010000 0.000000 3.000000 -3.000000 -0.170000 0.950000 0.040000 1.000000 0.000000 3.660000 0.030000 4.890000 0.100000    / 
     3 'IEEEX1'  1   0.060000 0.001000 0.200000 0.010000 0.000000 1.000000 -1.000000 -0.044000 0.500000 0.085000 0.350000 0.000000 3.660000 0.030000 4.890000 0.100000    / 
